Version 4
SHEET 1 1200 900
WIRE 128 96 64 96
WIRE 240 96 208 96
WIRE 320 96 240 96
WIRE 448 96 400 96
WIRE 512 96 448 96
WIRE 640 96 592 96
WIRE 720 96 640 96
WIRE 832 96 800 96
WIRE 928 96 832 96
WIRE 240 144 240 96
WIRE 448 160 448 96
WIRE 640 160 640 96
WIRE 64 176 64 96
WIRE 512 176 512 96
WIRE 320 192 320 96
WIRE 480 208 448 208
WIRE 448 224 448 208
WIRE 544 224 544 176
WIRE 688 224 688 176
WIRE 480 240 448 240
WIRE 640 256 640 224
WIRE 688 256 688 224
WIRE 688 256 640 256
WIRE 832 256 832 96
WIRE 832 256 688 256
WIRE 240 288 240 224
WIRE 320 288 320 272
WIRE 320 288 240 288
WIRE 448 288 448 240
WIRE 448 288 320 288
WIRE 64 320 64 256
WIRE 512 352 512 240
WIRE 640 352 640 256
WIRE 640 352 512 352
WIRE 832 352 832 256
WIRE 832 352 640 352
WIRE 928 352 928 96
WIRE 928 352 832 352
WIRE 64 400 64 320
WIRE 320 400 320 288
FLAG 64 400 0
FLAG 320 400 0
FLAG 928 96 Vout
FLAG 512 96 Vs
SYMBOL voltage 64 160 R0
WINDOW 123 0 0 Left 0
WINDOW 39 0 0 Left 0
SYMATTR InstName Vin
SYMATTR Value SINE(0 1 1k)
SYMBOL res 112 112 R270
WINDOW 0 32 56 VTop 2
WINDOW 3 0 56 VBottom 2
SYMATTR InstName R1
SYMATTR Value 10k
SYMBOL res 496 112 R270
WINDOW 0 32 56 VTop 2
WINDOW 3 0 56 VBottom 2
SYMATTR InstName Ro
SYMATTR Value 47
SYMBOL res 704 112 R270
WINDOW 0 32 56 VTop 2
WINDOW 3 0 56 VBottom 2
SYMATTR InstName Rs
SYMATTR Value 2.2
SYMBOL res 816 240 R0
SYMATTR InstName Rload
SYMATTR Value 32
SYMBOL Opamps/UniversalOpAmp2 512 208 R0
SYMATTR InstName U1
SYMATTR Value2 Avol=100k GBW=10Meg Slew=5Meg
SYMBOL res 224 128 R0
SYMATTR InstName Rg
SYMATTR Value 10k
SYMBOL res 624 144 R0
SYMATTR InstName Rfb
SYMATTR Value 100k
SYMBOL res 304 176 R0
SYMATTR InstName Rff
SYMATTR Value 100k
SYMBOL cap 432 160 R0
SYMATTR InstName Cin
SYMATTR Value 100n
TEXT 48 528 Left 2 ;Zero Output Resistance Headphone Amplifier
TEXT 48 560 Left 2 ;Based on TI SLYT630 "Zero output resistance of headphone amplifier optimizes audio performance"
TEXT 48 592 Left 2 ;U1: Main amplifier with feedback from load side (Vout)
TEXT 48 624 Left 2 ;Rs: Sense resistor in output path
TEXT 48 656 Left 2 ;Ro: Output resistor (compensated to appear as zero impedance)
TEXT 48 688 Left 2 ;Rfb, Rff: Feedback network from load to cancel output impedance
TEXT 48 736 Left 2 !.tran 5m
TEXT 48 768 Left 2 !.ac dec 100 10 100k
TEXT 48 456 Left 3 ;SIMULATION PARAMETERS:
TEXT 48 488 Left 2 ;Run transient analysis to see time-domain response
TEXT 48 800 Left 2 ;To see frequency response: View -> SPICE Error Log
